218
Properties=species:S:1:pos:R:3:tags:I:1 pbc="F F F"
C      14.27691625      11.34447990       9.27856218        0 
P      12.68851476      11.57735817       8.49613037        0 
O      12.02531818      10.09992583       8.59606757        0 
O      11.88265429      12.69448479       9.08985267        0 
F      12.83310473      11.78250447       6.94172388        0 
C      10.84669997       9.89554331       9.36818021        0 
C       9.64216294      10.12826405       8.46654980        0 
C      10.87901887       8.48148999       9.93384501        0 
H      14.64244129      10.32388940       9.12283158        0 
H      15.01015428      12.04249379       8.86087918        0 
H      14.20006617      11.52783108      10.35556189        0 
H      10.82637482      10.60450544      10.20358456        0 
H       8.70983688       9.84849097       8.96819604        0 
H       9.56099482      11.18441556       8.19083440        0 
H       9.72741101       9.54506438       7.54299625        0 
H      10.99191081       8.51092121      11.02047550        0 
H       9.95892961       7.93210231       9.71902968        0 
H      11.71287957       7.89840041       9.53379653        0 
C       0.00000000       0.00000000       0.00000000        0 
C      -0.00001230       1.42086612       0.03354000        2 
C       2.46100000       0.00000000       0.00000000        0 
C       2.46098770       1.42086612       0.03354000        2 
C       1.23050000       2.13128852       0.00000000        0 
C       1.23048770       3.55215464       0.03354000        2 
C       0.00000000       4.26257704       0.00000000        0 
C      -0.00001230       5.68344315       0.03354000        2 
C       4.92200000       0.00000000       0.00000000        0 
C       4.92198770       1.42086612       0.03354000        2 
C       3.69150000       2.13128852       0.00000000        0 
C       3.69148770       3.55215464       0.03354000        2 
C       2.46100000       4.26257704       0.00000000        0 
C       2.46098770       5.68344315       0.03354000        2 
C       1.23050000       6.39386556       0.00000000        0 
C       1.23048770       7.81473167       0.03354000        2 
C       0.00000000       8.52515407       0.00000000        0 
C      -0.00001230       9.94602019       0.03354000        2 
C       7.38300000       0.00000000       0.00000000        0 
C       7.38298769       1.42086612       0.03354000        2 
C       6.15250000       2.13128852       0.00000000        0 
C       6.15248770       3.55215464       0.03354000        2 
C       4.92200000       4.26257704       0.00000000        0 
C       4.92198770       5.68344315       0.03354000        2 
C       3.69150000       6.39386556       0.00000000        0 
C       3.69148770       7.81473167       0.03354000        2 
C       2.46100000       8.52515407       0.00000000        0 
C       2.46098770       9.94602019       0.03354000        2 
C       1.23050000      10.65644259       0.00000000        0 
C       1.23048770      12.07730871       0.03354000        2 
C       0.00000000      12.78773111       0.00000000        0 
C      -0.00001230      14.20859723       0.03354000        2 
C       9.84400000       0.00000000       0.00000000        0 
C       9.84398769       1.42086612       0.03354000        2 
C       8.61350000       2.13128852       0.00000000        0 
C       8.61348769       3.55215464       0.03354000        2 
C       7.38300000       4.26257704       0.00000000        0 
C       7.38298770       5.68344315       0.03354000        2 
C       6.15250000       6.39386556       0.00000000        0 
C       6.15248770       7.81473167       0.03354000        2 
C       4.92200000       8.52515407       0.00000000        0 
C       4.92198770       9.94602019       0.03354000        2 
C       3.69150000      10.65644259       0.00000000        0 
C       3.69148770      12.07730871       0.03354000        2 
C       2.46100000      12.78773111       0.00000000        0 
C       2.46098770      14.20859723       0.03354000        2 
C       1.23050000      14.91901963       0.00000000        0 
C       1.23048770      16.33988575       0.03354000        2 
C       0.00000000      17.05030815       0.00000000        0 
C      -0.00001230      18.47117427       0.03354000        2 
C      12.30500000       0.00000000       0.00000000        0 
C      12.30498769       1.42086612       0.03354000        2 
C      11.07450000       2.13128852       0.00000000        0 
C      11.07448770       3.55215464       0.03354000        2 
C       9.84400000       4.26257704       0.00000000        0 
C       9.84398770       5.68344315       0.03354000        2 
C       8.61350000       6.39386556       0.00000000        0 
C       8.61348770       7.81473167       0.03354000        2 
C       7.38300000       8.52515407       0.00000000        0 
C       7.38298770       9.94602019       0.03354000        2 
C       6.15250000      10.65644259       0.00000000        0 
C       6.15248770      12.07730871       0.03354000        2 
C       4.92200000      12.78773111       0.00000000        0 
C       4.92198770      14.20859723       0.03354000        2 
C       3.69150000      14.91901963       0.00000000        0 
C       3.69148770      16.33988575       0.03354000        2 
C       2.46100000      17.05030815       0.00000000        0 
C       2.46098770      18.47117427       0.03354000        2 
C       1.23050000      19.18159667       0.00000000        0 
C       1.23048770      20.60246279       0.03354000        2 
C      14.76600000       0.00000000       0.00000000        0 
C      14.76598769       1.42086612       0.03354000        2 
C      13.53550000       2.13128852       0.00000000        0 
C      13.53548769       3.55215464       0.03354000        2 
C      12.30500000       4.26257704       0.00000000        0 
C      12.30498769       5.68344315       0.03354000        2 
C      11.07450000       6.39386556       0.00000000        0 
C      11.07448770       7.81473167       0.03354000        2 
C       9.84400000       8.52515407       0.00000000        0 
C       9.84398770       9.94602019       0.03354000        2 
C       8.61350000      10.65644259       0.00000000        0 
C       8.61348769      12.07730871       0.03354000        2 
C       7.38300000      12.78773111       0.00000000        0 
C       7.38298770      14.20859723       0.03354000        2 
C       6.15250000      14.91901963       0.00000000        0 
C       6.15248770      16.33988575       0.03354000        2 
C       4.92200000      17.05030815       0.00000000        0 
C       4.92198770      18.47117427       0.03354000        2 
C       3.69150000      19.18159667       0.00000000        0 
C       3.69148770      20.60246279       0.03354000        2 
C      17.22700000       0.00000000       0.00000000        0 
C      17.22698770       1.42086612       0.03354000        2 
C      15.99650000       2.13128852       0.00000000        0 
C      15.99648770       3.55215464       0.03354000        2 
C      14.76600000       4.26257704       0.00000000        0 
C      14.76598770       5.68344315       0.03354000        2 
C      13.53550000       6.39386556       0.00000000        0 
C      13.53548770       7.81473167       0.03354000        2 
C      12.30500000       8.52515407       0.00000000        0 
C      12.30498770       9.94602019       0.03354000        2 
C      11.07450000      10.65644259       0.00000000        0 
C      11.07448770      12.07730871       0.03354000        2 
C       9.84400000      12.78773111       0.00000000        0 
C       9.84398770      14.20859723       0.03354000        2 
C       8.61350000      14.91901963       0.00000000        0 
C       8.61348770      16.33988575       0.03354000        2 
C       7.38300000      17.05030815       0.00000000        0 
C       7.38298770      18.47117427       0.03354000        2 
C       6.15250000      19.18159667       0.00000000        0 
C       6.15248770      20.60246279       0.03354000        2 
C      19.68800000       0.00000000       0.00000000        0 
C      19.68798770       1.42086612       0.03354000        2 
C      18.45750000       2.13128852       0.00000000        0 
C      18.45748770       3.55215464       0.03354000        2 
C      17.22700000       4.26257704       0.00000000        0 
C      17.22698770       5.68344315       0.03354000        2 
C      15.99650000       6.39386556       0.00000000        0 
C      15.99648770       7.81473167       0.03354000        2 
C      14.76600000       8.52515407       0.00000000        0 
C      14.76598770       9.94602019       0.03354000        2 
C      13.53550000      10.65644259       0.00000000        0 
C      13.53548770      12.07730871       0.03354000        2 
C      12.30500000      12.78773111       0.00000000        0 
C      12.30498770      14.20859723       0.03354000        2 
C      11.07450000      14.91901963       0.00000000        0 
C      11.07448770      16.33988575       0.03354000        2 
C       9.84400000      17.05030815       0.00000000        0 
C       9.84398770      18.47117427       0.03354000        2 
C       8.61350000      19.18159667       0.00000000        0 
C       8.61348770      20.60246279       0.03354000        2 
C      22.14900000       0.00000000       0.00000000        0 
C      22.14898769       1.42086612       0.03354000        2 
C      20.91850000       2.13128852       0.00000000        0 
C      20.91848769       3.55215464       0.03354000        2 
C      19.68800000       4.26257704       0.00000000        0 
C      19.68798770       5.68344315       0.03354000        2 
C      18.45750000       6.39386556       0.00000000        0 
C      18.45748770       7.81473167       0.03354000        2 
C      17.22700000       8.52515407       0.00000000        0 
C      17.22698770       9.94602019       0.03354000        2 
C      15.99650000      10.65644259       0.00000000        0 
C      15.99648769      12.07730871       0.03354000        2 
C      14.76600000      12.78773111       0.00000000        0 
C      14.76598769      14.20859723       0.03354000        2 
C      13.53550000      14.91901963       0.00000000        0 
C      13.53548770      16.33988575       0.03354000        2 
C      12.30500000      17.05030815       0.00000000        0 
C      12.30498770      18.47117427       0.03354000        2 
C      11.07450000      19.18159667       0.00000000        0 
C      11.07448770      20.60246279       0.03354000        2 
C      23.37950000       2.13128852       0.00000000        0 
C      23.37948770       3.55215464       0.03354000        2 
C      22.14900000       4.26257704       0.00000000        0 
C      22.14898770       5.68344315       0.03354000        2 
C      20.91850000       6.39386556       0.00000000        0 
C      20.91848770       7.81473167       0.03354000        2 
C      19.68800000       8.52515407       0.00000000        0 
C      19.68798770       9.94602019       0.03354000        2 
C      18.45750000      10.65644259       0.00000000        0 
C      18.45748770      12.07730871       0.03354000        2 
C      17.22700000      12.78773111       0.00000000        0 
C      17.22698770      14.20859723       0.03354000        2 
C      15.99650000      14.91901963       0.00000000        0 
C      15.99648770      16.33988575       0.03354000        2 
C      14.76600000      17.05030815       0.00000000        0 
C      14.76598770      18.47117427       0.03354000        2 
C      13.53550000      19.18159667       0.00000000        0 
C      13.53548770      20.60246279       0.03354000        2 
C      23.37950000       6.39386556       0.00000000        0 
C      23.37948770       7.81473167       0.03354000        2 
C      22.14900000       8.52515407       0.00000000        0 
C      22.14898770       9.94602019       0.03354000        2 
C      20.91850000      10.65644259       0.00000000        0 
C      20.91848770      12.07730871       0.03354000        2 
C      19.68800000      12.78773111       0.00000000        0 
C      19.68798770      14.20859723       0.03354000        2 
C      18.45750000      14.91901963       0.00000000        0 
C      18.45748770      16.33988575       0.03354000        2 
C      17.22700000      17.05030815       0.00000000        0 
C      17.22698770      18.47117427       0.03354000        2 
C      15.99650000      19.18159667       0.00000000        0 
C      15.99648770      20.60246279       0.03354000        2 
C      23.37950000      10.65644259       0.00000000        0 
C      23.37948770      12.07730871       0.03354000        2 
C      22.14900000      12.78773111       0.00000000        0 
C      22.14898770      14.20859723       0.03354000        2 
C      20.91850000      14.91901963       0.00000000        0 
C      20.91848770      16.33988575       0.03354000        2 
C      19.68800000      17.05030815       0.00000000        0 
C      19.68798770      18.47117427       0.03354000        2 
C      18.45750000      19.18159667       0.00000000        0 
C      18.45748770      20.60246279       0.03354000        2 
C      23.37950000      14.91901963       0.00000000        0 
C      23.37948770      16.33988575       0.03354000        2 
C      22.14900000      17.05030815       0.00000000        0 
C      22.14898770      18.47117427       0.03354000        2 
C      20.91850000      19.18159667       0.00000000        0 
C      20.91848770      20.60246279       0.03354000        2 
C      23.37950000      19.18159667       0.00000000        0 
C      23.37948770      20.60246279       0.03354000        2 
