218
Properties=species:S:1:pos:R:3:tags:I:1 pbc="F F F"
C      11.50277455      12.99571365       5.48406891        0 
P      12.29164143      11.44943109       5.06436618        0 
O      12.18525777      10.61103151       6.44942651        0 
O      11.70700585      10.78411748       3.85380920        0 
F      13.84674054      11.62177841       4.88791804        0 
C      11.41575987       9.41438587       6.50404543        0 
C      12.32258926       8.24938692       6.13196522        0 
C      10.84179364       9.27288667       7.90800722        0 
H      11.65140242      13.23463741       6.54250679        0 
H      11.92214674      13.80951966       4.88309700        0 
H      10.42710985      12.93908932       5.28610146        0 
H      10.58455547       9.47846311       5.79275492        0 
H      11.82232327       7.28869141       6.29306111        0 
H      12.60469133       8.29810340       5.07550491        0 
H      13.24246266       8.26528075       6.72687747        0 
H       9.75499546       9.38582690       7.88585229        0 
H      11.05636874       8.29328559       8.34260582        0 
H      11.23577040      10.03053592       8.59072665        0 
C       0.00000000       0.00000000       0.00000000        0 
C      -0.00001230       1.42086612       0.03354000        2 
C       2.46100000       0.00000000       0.00000000        0 
C       2.46098770       1.42086612       0.03354000        2 
C       1.23050000       2.13128852       0.00000000        0 
C       1.23048770       3.55215464       0.03354000        2 
C       0.00000000       4.26257704       0.00000000        0 
C      -0.00001230       5.68344315       0.03354000        2 
C       4.92200000       0.00000000       0.00000000        0 
C       4.92198770       1.42086612       0.03354000        2 
C       3.69150000       2.13128852       0.00000000        0 
C       3.69148770       3.55215464       0.03354000        2 
C       2.46100000       4.26257704       0.00000000        0 
C       2.46098770       5.68344315       0.03354000        2 
C       1.23050000       6.39386556       0.00000000        0 
C       1.23048770       7.81473167       0.03354000        2 
C       0.00000000       8.52515407       0.00000000        0 
C      -0.00001230       9.94602019       0.03354000        2 
C       7.38300000       0.00000000       0.00000000        0 
C       7.38298769       1.42086612       0.03354000        2 
C       6.15250000       2.13128852       0.00000000        0 
C       6.15248770       3.55215464       0.03354000        2 
C       4.92200000       4.26257704       0.00000000        0 
C       4.92198770       5.68344315       0.03354000        2 
C       3.69150000       6.39386556       0.00000000        0 
C       3.69148770       7.81473167       0.03354000        2 
C       2.46100000       8.52515407       0.00000000        0 
C       2.46098770       9.94602019       0.03354000        2 
C       1.23050000      10.65644259       0.00000000        0 
C       1.23048770      12.07730871       0.03354000        2 
C       0.00000000      12.78773111       0.00000000        0 
C      -0.00001230      14.20859723       0.03354000        2 
C       9.84400000       0.00000000       0.00000000        0 
C       9.84398769       1.42086612       0.03354000        2 
C       8.61350000       2.13128852       0.00000000        0 
C       8.61348769       3.55215464       0.03354000        2 
C       7.38300000       4.26257704       0.00000000        0 
C       7.38298770       5.68344315       0.03354000        2 
C       6.15250000       6.39386556       0.00000000        0 
C       6.15248770       7.81473167       0.03354000        2 
C       4.92200000       8.52515407       0.00000000        0 
C       4.92198770       9.94602019       0.03354000        2 
C       3.69150000      10.65644259       0.00000000        0 
C       3.69148770      12.07730871       0.03354000        2 
C       2.46100000      12.78773111       0.00000000        0 
C       2.46098770      14.20859723       0.03354000        2 
C       1.23050000      14.91901963       0.00000000        0 
C       1.23048770      16.33988575       0.03354000        2 
C       0.00000000      17.05030815       0.00000000        0 
C      -0.00001230      18.47117427       0.03354000        2 
C      12.30500000       0.00000000       0.00000000        0 
C      12.30498769       1.42086612       0.03354000        2 
C      11.07450000       2.13128852       0.00000000        0 
C      11.07448770       3.55215464       0.03354000        2 
C       9.84400000       4.26257704       0.00000000        0 
C       9.84398770       5.68344315       0.03354000        2 
C       8.61350000       6.39386556       0.00000000        0 
C       8.61348770       7.81473167       0.03354000        2 
C       7.38300000       8.52515407       0.00000000        0 
C       7.38298770       9.94602019       0.03354000        2 
C       6.15250000      10.65644259       0.00000000        0 
C       6.15248770      12.07730871       0.03354000        2 
C       4.92200000      12.78773111       0.00000000        0 
C       4.92198770      14.20859723       0.03354000        2 
C       3.69150000      14.91901963       0.00000000        0 
C       3.69148770      16.33988575       0.03354000        2 
C       2.46100000      17.05030815       0.00000000        0 
C       2.46098770      18.47117427       0.03354000        2 
C       1.23050000      19.18159667       0.00000000        0 
C       1.23048770      20.60246279       0.03354000        2 
C      14.76600000       0.00000000       0.00000000        0 
C      14.76598769       1.42086612       0.03354000        2 
C      13.53550000       2.13128852       0.00000000        0 
C      13.53548769       3.55215464       0.03354000        2 
C      12.30500000       4.26257704       0.00000000        0 
C      12.30498769       5.68344315       0.03354000        2 
C      11.07450000       6.39386556       0.00000000        0 
C      11.07448770       7.81473167       0.03354000        2 
C       9.84400000       8.52515407       0.00000000        0 
C       9.84398770       9.94602019       0.03354000        2 
C       8.61350000      10.65644259       0.00000000        0 
C       8.61348769      12.07730871       0.03354000        2 
C       7.38300000      12.78773111       0.00000000        0 
C       7.38298770      14.20859723       0.03354000        2 
C       6.15250000      14.91901963       0.00000000        0 
C       6.15248770      16.33988575       0.03354000        2 
C       4.92200000      17.05030815       0.00000000        0 
C       4.92198770      18.47117427       0.03354000        2 
C       3.69150000      19.18159667       0.00000000        0 
C       3.69148770      20.60246279       0.03354000        2 
C      17.22700000       0.00000000       0.00000000        0 
C      17.22698770       1.42086612       0.03354000        2 
C      15.99650000       2.13128852       0.00000000        0 
C      15.99648770       3.55215464       0.03354000        2 
C      14.76600000       4.26257704       0.00000000        0 
C      14.76598770       5.68344315       0.03354000        2 
C      13.53550000       6.39386556       0.00000000        0 
C      13.53548770       7.81473167       0.03354000        2 
C      12.30500000       8.52515407       0.00000000        0 
C      12.30498770       9.94602019       0.03354000        2 
C      11.07450000      10.65644259       0.00000000        0 
C      11.07448770      12.07730871       0.03354000        2 
C       9.84400000      12.78773111       0.00000000        0 
C       9.84398770      14.20859723       0.03354000        2 
C       8.61350000      14.91901963       0.00000000        0 
C       8.61348770      16.33988575       0.03354000        2 
C       7.38300000      17.05030815       0.00000000        0 
C       7.38298770      18.47117427       0.03354000        2 
C       6.15250000      19.18159667       0.00000000        0 
C       6.15248770      20.60246279       0.03354000        2 
C      19.68800000       0.00000000       0.00000000        0 
C      19.68798770       1.42086612       0.03354000        2 
C      18.45750000       2.13128852       0.00000000        0 
C      18.45748770       3.55215464       0.03354000        2 
C      17.22700000       4.26257704       0.00000000        0 
C      17.22698770       5.68344315       0.03354000        2 
C      15.99650000       6.39386556       0.00000000        0 
C      15.99648770       7.81473167       0.03354000        2 
C      14.76600000       8.52515407       0.00000000        0 
C      14.76598770       9.94602019       0.03354000        2 
C      13.53550000      10.65644259       0.00000000        0 
C      13.53548770      12.07730871       0.03354000        2 
C      12.30500000      12.78773111       0.00000000        0 
C      12.30498770      14.20859723       0.03354000        2 
C      11.07450000      14.91901963       0.00000000        0 
C      11.07448770      16.33988575       0.03354000        2 
C       9.84400000      17.05030815       0.00000000        0 
C       9.84398770      18.47117427       0.03354000        2 
C       8.61350000      19.18159667       0.00000000        0 
C       8.61348770      20.60246279       0.03354000        2 
C      22.14900000       0.00000000       0.00000000        0 
C      22.14898769       1.42086612       0.03354000        2 
C      20.91850000       2.13128852       0.00000000        0 
C      20.91848769       3.55215464       0.03354000        2 
C      19.68800000       4.26257704       0.00000000        0 
C      19.68798770       5.68344315       0.03354000        2 
C      18.45750000       6.39386556       0.00000000        0 
C      18.45748770       7.81473167       0.03354000        2 
C      17.22700000       8.52515407       0.00000000        0 
C      17.22698770       9.94602019       0.03354000        2 
C      15.99650000      10.65644259       0.00000000        0 
C      15.99648769      12.07730871       0.03354000        2 
C      14.76600000      12.78773111       0.00000000        0 
C      14.76598769      14.20859723       0.03354000        2 
C      13.53550000      14.91901963       0.00000000        0 
C      13.53548770      16.33988575       0.03354000        2 
C      12.30500000      17.05030815       0.00000000        0 
C      12.30498770      18.47117427       0.03354000        2 
C      11.07450000      19.18159667       0.00000000        0 
C      11.07448770      20.60246279       0.03354000        2 
C      23.37950000       2.13128852       0.00000000        0 
C      23.37948770       3.55215464       0.03354000        2 
C      22.14900000       4.26257704       0.00000000        0 
C      22.14898770       5.68344315       0.03354000        2 
C      20.91850000       6.39386556       0.00000000        0 
C      20.91848770       7.81473167       0.03354000        2 
C      19.68800000       8.52515407       0.00000000        0 
C      19.68798770       9.94602019       0.03354000        2 
C      18.45750000      10.65644259       0.00000000        0 
C      18.45748770      12.07730871       0.03354000        2 
C      17.22700000      12.78773111       0.00000000        0 
C      17.22698770      14.20859723       0.03354000        2 
C      15.99650000      14.91901963       0.00000000        0 
C      15.99648770      16.33988575       0.03354000        2 
C      14.76600000      17.05030815       0.00000000        0 
C      14.76598770      18.47117427       0.03354000        2 
C      13.53550000      19.18159667       0.00000000        0 
C      13.53548770      20.60246279       0.03354000        2 
C      23.37950000       6.39386556       0.00000000        0 
C      23.37948770       7.81473167       0.03354000        2 
C      22.14900000       8.52515407       0.00000000        0 
C      22.14898770       9.94602019       0.03354000        2 
C      20.91850000      10.65644259       0.00000000        0 
C      20.91848770      12.07730871       0.03354000        2 
C      19.68800000      12.78773111       0.00000000        0 
C      19.68798770      14.20859723       0.03354000        2 
C      18.45750000      14.91901963       0.00000000        0 
C      18.45748770      16.33988575       0.03354000        2 
C      17.22700000      17.05030815       0.00000000        0 
C      17.22698770      18.47117427       0.03354000        2 
C      15.99650000      19.18159667       0.00000000        0 
C      15.99648770      20.60246279       0.03354000        2 
C      23.37950000      10.65644259       0.00000000        0 
C      23.37948770      12.07730871       0.03354000        2 
C      22.14900000      12.78773111       0.00000000        0 
C      22.14898770      14.20859723       0.03354000        2 
C      20.91850000      14.91901963       0.00000000        0 
C      20.91848770      16.33988575       0.03354000        2 
C      19.68800000      17.05030815       0.00000000        0 
C      19.68798770      18.47117427       0.03354000        2 
C      18.45750000      19.18159667       0.00000000        0 
C      18.45748770      20.60246279       0.03354000        2 
C      23.37950000      14.91901963       0.00000000        0 
C      23.37948770      16.33988575       0.03354000        2 
C      22.14900000      17.05030815       0.00000000        0 
C      22.14898770      18.47117427       0.03354000        2 
C      20.91850000      19.18159667       0.00000000        0 
C      20.91848770      20.60246279       0.03354000        2 
C      23.37950000      19.18159667       0.00000000        0 
C      23.37948770      20.60246279       0.03354000        2 
