217
Properties=species:S:1:pos:R:3:tags:I:1 62835=T pbc="F F F"
O      11.77482198       8.67087789       9.16591951        0 
O      12.66459595       9.70366733      12.48821374        0 
O      13.03989628       7.44400379      10.64866367        0 
C      11.14836116       9.96749518       9.18529626        0 
C      11.45941331      10.48882502      10.54228997        0 
C      12.18926340       9.60375344      11.21877252        0 
C      11.72390282      10.80073658       8.05066373        0 
C      10.96508325      11.80847893      11.01642287        0 
C      12.40735906       8.44275584      10.35442246        0 
H      10.07036525       9.82586983       9.05252952        0 
H      11.55727866      10.29958761       7.09086896        0 
H      11.26464946      11.79313027       8.00758688        0 
H      12.80826075      10.92215271       8.15494851        0 
H       9.87405144      11.85430590      10.94225744        0 
H      11.38834145      12.61792678      10.41405243        0 
H      11.23660832      11.99312158      12.06070894        0 
H      13.15339287       8.88424497      12.67840127        0 
C       0.00000000       0.00000000       0.00000000        0 
C      -0.00001230       1.42086612       0.03354000        2 
C       2.46100000       0.00000000       0.00000000        0 
C       2.46098770       1.42086612       0.03354000        2 
C       1.23050000       2.13128852       0.00000000        0 
C       1.23048770       3.55215464       0.03354000        2 
C       0.00000000       4.26257704       0.00000000        0 
C      -0.00001230       5.68344315       0.03354000        2 
C       4.92200000       0.00000000       0.00000000        0 
C       4.92198770       1.42086612       0.03354000        2 
C       3.69150000       2.13128852       0.00000000        0 
C       3.69148770       3.55215464       0.03354000        2 
C       2.46100000       4.26257704       0.00000000        0 
C       2.46098770       5.68344315       0.03354000        2 
C       1.23050000       6.39386556       0.00000000        0 
C       1.23048770       7.81473167       0.03354000        2 
C       0.00000000       8.52515407       0.00000000        0 
C      -0.00001230       9.94602019       0.03354000        2 
C       7.38300000       0.00000000       0.00000000        0 
C       7.38298769       1.42086612       0.03354000        2 
C       6.15250000       2.13128852       0.00000000        0 
C       6.15248770       3.55215464       0.03354000        2 
C       4.92200000       4.26257704       0.00000000        0 
C       4.92198770       5.68344315       0.03354000        2 
C       3.69150000       6.39386556       0.00000000        0 
C       3.69148770       7.81473167       0.03354000        2 
C       2.46100000       8.52515407       0.00000000        0 
C       2.46098770       9.94602019       0.03354000        2 
C       1.23050000      10.65644259       0.00000000        0 
C       1.23048770      12.07730871       0.03354000        2 
C       0.00000000      12.78773111       0.00000000        0 
C      -0.00001230      14.20859723       0.03354000        2 
C       9.84400000       0.00000000       0.00000000        0 
C       9.84398769       1.42086612       0.03354000        2 
C       8.61350000       2.13128852       0.00000000        0 
C       8.61348769       3.55215464       0.03354000        2 
C       7.38300000       4.26257704       0.00000000        0 
C       7.38298770       5.68344315       0.03354000        2 
C       6.15250000       6.39386556       0.00000000        0 
C       6.15248770       7.81473167       0.03354000        2 
C       4.92200000       8.52515407       0.00000000        0 
C       4.92198770       9.94602019       0.03354000        2 
C       3.69150000      10.65644259       0.00000000        0 
C       3.69148770      12.07730871       0.03354000        2 
C       2.46100000      12.78773111       0.00000000        0 
C       2.46098770      14.20859723       0.03354000        2 
C       1.23050000      14.91901963       0.00000000        0 
C       1.23048770      16.33988575       0.03354000        2 
C       0.00000000      17.05030815       0.00000000        0 
C      -0.00001230      18.47117427       0.03354000        2 
C      12.30500000       0.00000000       0.00000000        0 
C      12.30498769       1.42086612       0.03354000        2 
C      11.07450000       2.13128852       0.00000000        0 
C      11.07448770       3.55215464       0.03354000        2 
C       9.84400000       4.26257704       0.00000000        0 
C       9.84398770       5.68344315       0.03354000        2 
C       8.61350000       6.39386556       0.00000000        0 
C       8.61348770       7.81473167       0.03354000        2 
C       7.38300000       8.52515407       0.00000000        0 
C       7.38298770       9.94602019       0.03354000        2 
C       6.15250000      10.65644259       0.00000000        0 
C       6.15248770      12.07730871       0.03354000        2 
C       4.92200000      12.78773111       0.00000000        0 
C       4.92198770      14.20859723       0.03354000        2 
C       3.69150000      14.91901963       0.00000000        0 
C       3.69148770      16.33988575       0.03354000        2 
C       2.46100000      17.05030815       0.00000000        0 
C       2.46098770      18.47117427       0.03354000        2 
C       1.23050000      19.18159667       0.00000000        0 
C       1.23048770      20.60246279       0.03354000        2 
C      14.76600000       0.00000000       0.00000000        0 
C      14.76598769       1.42086612       0.03354000        2 
C      13.53550000       2.13128852       0.00000000        0 
C      13.53548769       3.55215464       0.03354000        2 
C      12.30500000       4.26257704       0.00000000        0 
C      12.30498769       5.68344315       0.03354000        2 
C      11.07450000       6.39386556       0.00000000        0 
C      11.07448770       7.81473167       0.03354000        2 
C       9.84400000       8.52515407       0.00000000        0 
C       9.84398770       9.94602019       0.03354000        2 
C       8.61350000      10.65644259       0.00000000        0 
C       8.61348769      12.07730871       0.03354000        2 
C       7.38300000      12.78773111       0.00000000        0 
C       7.38298770      14.20859723       0.03354000        2 
C       6.15250000      14.91901963       0.00000000        0 
C       6.15248770      16.33988575       0.03354000        2 
C       4.92200000      17.05030815       0.00000000        0 
C       4.92198770      18.47117427       0.03354000        2 
C       3.69150000      19.18159667       0.00000000        0 
C       3.69148770      20.60246279       0.03354000        2 
C      17.22700000       0.00000000       0.00000000        0 
C      17.22698770       1.42086612       0.03354000        2 
C      15.99650000       2.13128852       0.00000000        0 
C      15.99648770       3.55215464       0.03354000        2 
C      14.76600000       4.26257704       0.00000000        0 
C      14.76598770       5.68344315       0.03354000        2 
C      13.53550000       6.39386556       0.00000000        0 
C      13.53548770       7.81473167       0.03354000        2 
C      12.30500000       8.52515407       0.00000000        0 
C      12.30498770       9.94602019       0.03354000        2 
C      11.07450000      10.65644259       0.00000000        0 
C      11.07448770      12.07730871       0.03354000        2 
C       9.84400000      12.78773111       0.00000000        0 
C       9.84398770      14.20859723       0.03354000        2 
C       8.61350000      14.91901963       0.00000000        0 
C       8.61348770      16.33988575       0.03354000        2 
C       7.38300000      17.05030815       0.00000000        0 
C       7.38298770      18.47117427       0.03354000        2 
C       6.15250000      19.18159667       0.00000000        0 
C       6.15248770      20.60246279       0.03354000        2 
C      19.68800000       0.00000000       0.00000000        0 
C      19.68798770       1.42086612       0.03354000        2 
C      18.45750000       2.13128852       0.00000000        0 
C      18.45748770       3.55215464       0.03354000        2 
C      17.22700000       4.26257704       0.00000000        0 
C      17.22698770       5.68344315       0.03354000        2 
C      15.99650000       6.39386556       0.00000000        0 
C      15.99648770       7.81473167       0.03354000        2 
C      14.76600000       8.52515407       0.00000000        0 
C      14.76598770       9.94602019       0.03354000        2 
C      13.53550000      10.65644259       0.00000000        0 
C      13.53548770      12.07730871       0.03354000        2 
C      12.30500000      12.78773111       0.00000000        0 
C      12.30498770      14.20859723       0.03354000        2 
C      11.07450000      14.91901963       0.00000000        0 
C      11.07448770      16.33988575       0.03354000        2 
C       9.84400000      17.05030815       0.00000000        0 
C       9.84398770      18.47117427       0.03354000        2 
C       8.61350000      19.18159667       0.00000000        0 
C       8.61348770      20.60246279       0.03354000        2 
C      22.14900000       0.00000000       0.00000000        0 
C      22.14898769       1.42086612       0.03354000        2 
C      20.91850000       2.13128852       0.00000000        0 
C      20.91848769       3.55215464       0.03354000        2 
C      19.68800000       4.26257704       0.00000000        0 
C      19.68798770       5.68344315       0.03354000        2 
C      18.45750000       6.39386556       0.00000000        0 
C      18.45748770       7.81473167       0.03354000        2 
C      17.22700000       8.52515407       0.00000000        0 
C      17.22698770       9.94602019       0.03354000        2 
C      15.99650000      10.65644259       0.00000000        0 
C      15.99648769      12.07730871       0.03354000        2 
C      14.76600000      12.78773111       0.00000000        0 
C      14.76598769      14.20859723       0.03354000        2 
C      13.53550000      14.91901963       0.00000000        0 
C      13.53548770      16.33988575       0.03354000        2 
C      12.30500000      17.05030815       0.00000000        0 
C      12.30498770      18.47117427       0.03354000        2 
C      11.07450000      19.18159667       0.00000000        0 
C      11.07448770      20.60246279       0.03354000        2 
C      23.37950000       2.13128852       0.00000000        0 
C      23.37948770       3.55215464       0.03354000        2 
C      22.14900000       4.26257704       0.00000000        0 
C      22.14898770       5.68344315       0.03354000        2 
C      20.91850000       6.39386556       0.00000000        0 
C      20.91848770       7.81473167       0.03354000        2 
C      19.68800000       8.52515407       0.00000000        0 
C      19.68798770       9.94602019       0.03354000        2 
C      18.45750000      10.65644259       0.00000000        0 
C      18.45748770      12.07730871       0.03354000        2 
C      17.22700000      12.78773111       0.00000000        0 
C      17.22698770      14.20859723       0.03354000        2 
C      15.99650000      14.91901963       0.00000000        0 
C      15.99648770      16.33988575       0.03354000        2 
C      14.76600000      17.05030815       0.00000000        0 
C      14.76598770      18.47117427       0.03354000        2 
C      13.53550000      19.18159667       0.00000000        0 
C      13.53548770      20.60246279       0.03354000        2 
C      23.37950000       6.39386556       0.00000000        0 
C      23.37948770       7.81473167       0.03354000        2 
C      22.14900000       8.52515407       0.00000000        0 
C      22.14898770       9.94602019       0.03354000        2 
C      20.91850000      10.65644259       0.00000000        0 
C      20.91848770      12.07730871       0.03354000        2 
C      19.68800000      12.78773111       0.00000000        0 
C      19.68798770      14.20859723       0.03354000        2 
C      18.45750000      14.91901963       0.00000000        0 
C      18.45748770      16.33988575       0.03354000        2 
C      17.22700000      17.05030815       0.00000000        0 
C      17.22698770      18.47117427       0.03354000        2 
C      15.99650000      19.18159667       0.00000000        0 
C      15.99648770      20.60246279       0.03354000        2 
C      23.37950000      10.65644259       0.00000000        0 
C      23.37948770      12.07730871       0.03354000        2 
C      22.14900000      12.78773111       0.00000000        0 
C      22.14898770      14.20859723       0.03354000        2 
C      20.91850000      14.91901963       0.00000000        0 
C      20.91848770      16.33988575       0.03354000        2 
C      19.68800000      17.05030815       0.00000000        0 
C      19.68798770      18.47117427       0.03354000        2 
C      18.45750000      19.18159667       0.00000000        0 
C      18.45748770      20.60246279       0.03354000        2 
C      23.37950000      14.91901963       0.00000000        0 
C      23.37948770      16.33988575       0.03354000        2 
C      22.14900000      17.05030815       0.00000000        0 
C      22.14898770      18.47117427       0.03354000        2 
C      20.91850000      19.18159667       0.00000000        0 
C      20.91848770      20.60246279       0.03354000        2 
C      23.37950000      19.18159667       0.00000000        0 
C      23.37948770      20.60246279       0.03354000        2 
