17
62835
O         -0.14030       -1.46920       -0.31780
O         -1.34150        1.86060        0.28680
O         -2.33420       -0.89720        0.08690
C          1.10680       -0.75240       -0.38840
C          0.71440        0.66160       -0.15050
C         -0.59990        0.74710        0.04690
C          2.05250       -1.32110        0.65810
C          1.70220        1.77260       -0.17460
C         -1.15990       -0.60200       -0.04750
H          1.51860       -0.88560       -1.39460
H          2.20620       -2.39220        0.48710
H          3.02660       -0.82300        0.63280
H          1.63640       -1.22300        1.66740
H          2.23440        1.78690       -1.13090
H          2.43530        1.65430        0.62900
H          1.22100        2.74740       -0.04590
H         -2.26730        1.57610        0.37900
