218
Properties=species:S:1:pos:R:3:tags:I:1 pbc="F F F"
C      12.66064186       9.19807050       4.39214375        0 
P      12.62268175      10.49683973       5.61057393        0 
O      11.52404496       9.96859172       6.67810127        0 
O      12.33084292      11.85357805       5.03560058        0 
F      13.95036857      10.53398511       6.45050439        0 
C      11.11308328      10.81641912       7.74769773        0 
C       9.73530876      10.36256252       8.20966891        0 
C      12.12279624      10.72167473       8.88163025        0 
H      13.64204834       9.16576217       3.91089236        0 
H      12.47375965       8.22417526       4.85185361        0 
H      11.90427867       9.36911080       3.62178083        0 
H      11.04653646      11.84793439       7.38642001        0 
H       9.34751883      11.03586226       8.98189058        0 
H       9.02333630      10.36829807       7.37761368        0 
H       9.76674879       9.34970979       8.62523100        0 
H      13.06416319      11.20477712       8.60429312        0 
H      11.75116864      11.22583687       9.77911271        0 
H      12.33606205       9.67897685       9.13791565        0 
C       0.00000000       0.00000000       0.00000000        0 
C      -0.00001230       1.42086612       0.03354000        2 
C       2.46100000       0.00000000       0.00000000        0 
C       2.46098770       1.42086612       0.03354000        2 
C       1.23050000       2.13128852       0.00000000        0 
C       1.23048770       3.55215464       0.03354000        2 
C       0.00000000       4.26257704       0.00000000        0 
C      -0.00001230       5.68344315       0.03354000        2 
C       4.92200000       0.00000000       0.00000000        0 
C       4.92198770       1.42086612       0.03354000        2 
C       3.69150000       2.13128852       0.00000000        0 
C       3.69148770       3.55215464       0.03354000        2 
C       2.46100000       4.26257704       0.00000000        0 
C       2.46098770       5.68344315       0.03354000        2 
C       1.23050000       6.39386556       0.00000000        0 
C       1.23048770       7.81473167       0.03354000        2 
C       0.00000000       8.52515407       0.00000000        0 
C      -0.00001230       9.94602019       0.03354000        2 
C       7.38300000       0.00000000       0.00000000        0 
C       7.38298769       1.42086612       0.03354000        2 
C       6.15250000       2.13128852       0.00000000        0 
C       6.15248770       3.55215464       0.03354000        2 
C       4.92200000       4.26257704       0.00000000        0 
C       4.92198770       5.68344315       0.03354000        2 
C       3.69150000       6.39386556       0.00000000        0 
C       3.69148770       7.81473167       0.03354000        2 
C       2.46100000       8.52515407       0.00000000        0 
C       2.46098770       9.94602019       0.03354000        2 
C       1.23050000      10.65644259       0.00000000        0 
C       1.23048770      12.07730871       0.03354000        2 
C       0.00000000      12.78773111       0.00000000        0 
C      -0.00001230      14.20859723       0.03354000        2 
C       9.84400000       0.00000000       0.00000000        0 
C       9.84398769       1.42086612       0.03354000        2 
C       8.61350000       2.13128852       0.00000000        0 
C       8.61348769       3.55215464       0.03354000        2 
C       7.38300000       4.26257704       0.00000000        0 
C       7.38298770       5.68344315       0.03354000        2 
C       6.15250000       6.39386556       0.00000000        0 
C       6.15248770       7.81473167       0.03354000        2 
C       4.92200000       8.52515407       0.00000000        0 
C       4.92198770       9.94602019       0.03354000        2 
C       3.69150000      10.65644259       0.00000000        0 
C       3.69148770      12.07730871       0.03354000        2 
C       2.46100000      12.78773111       0.00000000        0 
C       2.46098770      14.20859723       0.03354000        2 
C       1.23050000      14.91901963       0.00000000        0 
C       1.23048770      16.33988575       0.03354000        2 
C       0.00000000      17.05030815       0.00000000        0 
C      -0.00001230      18.47117427       0.03354000        2 
C      12.30500000       0.00000000       0.00000000        0 
C      12.30498769       1.42086612       0.03354000        2 
C      11.07450000       2.13128852       0.00000000        0 
C      11.07448770       3.55215464       0.03354000        2 
C       9.84400000       4.26257704       0.00000000        0 
C       9.84398770       5.68344315       0.03354000        2 
C       8.61350000       6.39386556       0.00000000        0 
C       8.61348770       7.81473167       0.03354000        2 
C       7.38300000       8.52515407       0.00000000        0 
C       7.38298770       9.94602019       0.03354000        2 
C       6.15250000      10.65644259       0.00000000        0 
C       6.15248770      12.07730871       0.03354000        2 
C       4.92200000      12.78773111       0.00000000        0 
C       4.92198770      14.20859723       0.03354000        2 
C       3.69150000      14.91901963       0.00000000        0 
C       3.69148770      16.33988575       0.03354000        2 
C       2.46100000      17.05030815       0.00000000        0 
C       2.46098770      18.47117427       0.03354000        2 
C       1.23050000      19.18159667       0.00000000        0 
C       1.23048770      20.60246279       0.03354000        2 
C      14.76600000       0.00000000       0.00000000        0 
C      14.76598769       1.42086612       0.03354000        2 
C      13.53550000       2.13128852       0.00000000        0 
C      13.53548769       3.55215464       0.03354000        2 
C      12.30500000       4.26257704       0.00000000        0 
C      12.30498769       5.68344315       0.03354000        2 
C      11.07450000       6.39386556       0.00000000        0 
C      11.07448770       7.81473167       0.03354000        2 
C       9.84400000       8.52515407       0.00000000        0 
C       9.84398770       9.94602019       0.03354000        2 
C       8.61350000      10.65644259       0.00000000        0 
C       8.61348769      12.07730871       0.03354000        2 
C       7.38300000      12.78773111       0.00000000        0 
C       7.38298770      14.20859723       0.03354000        2 
C       6.15250000      14.91901963       0.00000000        0 
C       6.15248770      16.33988575       0.03354000        2 
C       4.92200000      17.05030815       0.00000000        0 
C       4.92198770      18.47117427       0.03354000        2 
C       3.69150000      19.18159667       0.00000000        0 
C       3.69148770      20.60246279       0.03354000        2 
C      17.22700000       0.00000000       0.00000000        0 
C      17.22698770       1.42086612       0.03354000        2 
C      15.99650000       2.13128852       0.00000000        0 
C      15.99648770       3.55215464       0.03354000        2 
C      14.76600000       4.26257704       0.00000000        0 
C      14.76598770       5.68344315       0.03354000        2 
C      13.53550000       6.39386556       0.00000000        0 
C      13.53548770       7.81473167       0.03354000        2 
C      12.30500000       8.52515407       0.00000000        0 
C      12.30498770       9.94602019       0.03354000        2 
C      11.07450000      10.65644259       0.00000000        0 
C      11.07448770      12.07730871       0.03354000        2 
C       9.84400000      12.78773111       0.00000000        0 
C       9.84398770      14.20859723       0.03354000        2 
C       8.61350000      14.91901963       0.00000000        0 
C       8.61348770      16.33988575       0.03354000        2 
C       7.38300000      17.05030815       0.00000000        0 
C       7.38298770      18.47117427       0.03354000        2 
C       6.15250000      19.18159667       0.00000000        0 
C       6.15248770      20.60246279       0.03354000        2 
C      19.68800000       0.00000000       0.00000000        0 
C      19.68798770       1.42086612       0.03354000        2 
C      18.45750000       2.13128852       0.00000000        0 
C      18.45748770       3.55215464       0.03354000        2 
C      17.22700000       4.26257704       0.00000000        0 
C      17.22698770       5.68344315       0.03354000        2 
C      15.99650000       6.39386556       0.00000000        0 
C      15.99648770       7.81473167       0.03354000        2 
C      14.76600000       8.52515407       0.00000000        0 
C      14.76598770       9.94602019       0.03354000        2 
C      13.53550000      10.65644259       0.00000000        0 
C      13.53548770      12.07730871       0.03354000        2 
C      12.30500000      12.78773111       0.00000000        0 
C      12.30498770      14.20859723       0.03354000        2 
C      11.07450000      14.91901963       0.00000000        0 
C      11.07448770      16.33988575       0.03354000        2 
C       9.84400000      17.05030815       0.00000000        0 
C       9.84398770      18.47117427       0.03354000        2 
C       8.61350000      19.18159667       0.00000000        0 
C       8.61348770      20.60246279       0.03354000        2 
C      22.14900000       0.00000000       0.00000000        0 
C      22.14898769       1.42086612       0.03354000        2 
C      20.91850000       2.13128852       0.00000000        0 
C      20.91848769       3.55215464       0.03354000        2 
C      19.68800000       4.26257704       0.00000000        0 
C      19.68798770       5.68344315       0.03354000        2 
C      18.45750000       6.39386556       0.00000000        0 
C      18.45748770       7.81473167       0.03354000        2 
C      17.22700000       8.52515407       0.00000000        0 
C      17.22698770       9.94602019       0.03354000        2 
C      15.99650000      10.65644259       0.00000000        0 
C      15.99648769      12.07730871       0.03354000        2 
C      14.76600000      12.78773111       0.00000000        0 
C      14.76598769      14.20859723       0.03354000        2 
C      13.53550000      14.91901963       0.00000000        0 
C      13.53548770      16.33988575       0.03354000        2 
C      12.30500000      17.05030815       0.00000000        0 
C      12.30498770      18.47117427       0.03354000        2 
C      11.07450000      19.18159667       0.00000000        0 
C      11.07448770      20.60246279       0.03354000        2 
C      23.37950000       2.13128852       0.00000000        0 
C      23.37948770       3.55215464       0.03354000        2 
C      22.14900000       4.26257704       0.00000000        0 
C      22.14898770       5.68344315       0.03354000        2 
C      20.91850000       6.39386556       0.00000000        0 
C      20.91848770       7.81473167       0.03354000        2 
C      19.68800000       8.52515407       0.00000000        0 
C      19.68798770       9.94602019       0.03354000        2 
C      18.45750000      10.65644259       0.00000000        0 
C      18.45748770      12.07730871       0.03354000        2 
C      17.22700000      12.78773111       0.00000000        0 
C      17.22698770      14.20859723       0.03354000        2 
C      15.99650000      14.91901963       0.00000000        0 
C      15.99648770      16.33988575       0.03354000        2 
C      14.76600000      17.05030815       0.00000000        0 
C      14.76598770      18.47117427       0.03354000        2 
C      13.53550000      19.18159667       0.00000000        0 
C      13.53548770      20.60246279       0.03354000        2 
C      23.37950000       6.39386556       0.00000000        0 
C      23.37948770       7.81473167       0.03354000        2 
C      22.14900000       8.52515407       0.00000000        0 
C      22.14898770       9.94602019       0.03354000        2 
C      20.91850000      10.65644259       0.00000000        0 
C      20.91848770      12.07730871       0.03354000        2 
C      19.68800000      12.78773111       0.00000000        0 
C      19.68798770      14.20859723       0.03354000        2 
C      18.45750000      14.91901963       0.00000000        0 
C      18.45748770      16.33988575       0.03354000        2 
C      17.22700000      17.05030815       0.00000000        0 
C      17.22698770      18.47117427       0.03354000        2 
C      15.99650000      19.18159667       0.00000000        0 
C      15.99648770      20.60246279       0.03354000        2 
C      23.37950000      10.65644259       0.00000000        0 
C      23.37948770      12.07730871       0.03354000        2 
C      22.14900000      12.78773111       0.00000000        0 
C      22.14898770      14.20859723       0.03354000        2 
C      20.91850000      14.91901963       0.00000000        0 
C      20.91848770      16.33988575       0.03354000        2 
C      19.68800000      17.05030815       0.00000000        0 
C      19.68798770      18.47117427       0.03354000        2 
C      18.45750000      19.18159667       0.00000000        0 
C      18.45748770      20.60246279       0.03354000        2 
C      23.37950000      14.91901963       0.00000000        0 
C      23.37948770      16.33988575       0.03354000        2 
C      22.14900000      17.05030815       0.00000000        0 
C      22.14898770      18.47117427       0.03354000        2 
C      20.91850000      19.18159667       0.00000000        0 
C      20.91848770      20.60246279       0.03354000        2 
C      23.37950000      19.18159667       0.00000000        0 
C      23.37948770      20.60246279       0.03354000        2 
